Version 4
SHEET 1 880 680
WIRE -112 176 -304 176
WIRE -64 176 -112 176
WIRE 48 176 16 176
WIRE 96 176 48 176
WIRE 208 176 176 176
WIRE 240 176 208 176
WIRE 352 176 320 176
WIRE 432 176 352 176
WIRE -112 192 -112 176
WIRE 48 192 48 176
WIRE 208 192 208 176
WIRE 352 192 352 176
WIRE -304 208 -304 176
FLAG -112 256 0
FLAG 48 256 0
FLAG 208 256 0
FLAG 352 256 0
FLAG 432 256 0
FLAG -304 288 0
FLAG 432 176 S21
SYMBOL ind -80 192 R270
WINDOW 0 32 56 VTop 0
WINDOW 3 5 56 VBottom 0
SYMATTR InstName L1
SYMATTR Value 738n
SYMBOL ind 80 192 R270
WINDOW 0 32 56 VTop 0
WINDOW 3 5 56 VBottom 0
SYMATTR InstName L2
SYMATTR Value 866n
SYMBOL ind 224 192 R270
WINDOW 0 32 56 VTop 0
WINDOW 3 5 56 VBottom 0
SYMATTR InstName L3
SYMATTR Value 738n
SYMBOL cap -128 192 R0
SYMATTR InstName C1
SYMATTR Value 180p
SYMBOL cap 32 192 R0
SYMATTR InstName C2
SYMATTR Value 390p
SYMBOL cap 192 192 R0
SYMATTR InstName C3
SYMATTR Value 390p
SYMBOL cap 336 192 R0
SYMATTR InstName C4
SYMATTR Value 180p
SYMBOL res 416 160 R0
SYMATTR InstName R1
SYMATTR Value 50
SYMBOL Misc\\signal -304 192 R0
WINDOW 123 24 132 Left 0
WINDOW 39 24 160 Left 0
SYMATTR InstName V1
SYMATTR Value ""
SYMATTR Value2 AC 1
SYMATTR SpiceLine Rser=50
TEXT -338 506 Left 0 !.ac dec 50 100k 100Meg
