Version 4
SHEET 1 880 680
WIRE 304 32 304 0
WIRE 304 32 224 32
WIRE 224 48 224 32
WIRE 304 112 304 32
WIRE 496 112 400 112
WIRE 496 128 496 112
WIRE -208 192 -368 192
WIRE -112 192 -208 192
WIRE -16 192 -48 192
WIRE 80 192 -16 192
WIRE 192 192 176 192
WIRE 304 192 272 192
WIRE -368 208 -368 192
WIRE -208 208 -208 192
WIRE -16 224 -16 192
WIRE 400 224 400 192
WIRE -208 304 -208 288
WIRE -208 336 -208 304
WIRE -16 336 -16 304
FLAG -16 416 0
FLAG 496 208 0
FLAG 144 240 0
FLAG -368 288 0
FLAG -208 416 0
FLAG -240 32 0
FLAG -240 -48 VCC
IOPIN -240 -48 Out
FLAG 304 -80 VCC
IOPIN 304 -80 In
FLAG 224 112 0
FLAG 400 224 0
FLAG -208 304 S11
FLAG 496 112 S21
SYMBOL njf 80 240 R270
SYMATTR InstName J1
SYMATTR Value U309
SYMBOL ind -32 208 R0
SYMATTR InstName L1
SYMATTR Value 2.7µ
SYMBOL ind2 288 96 R0
WINDOW 3 35 77 Left 0
SYMATTR Value 67.5µ
SYMATTR InstName L2
SYMATTR Type ind
SYMBOL ind2 416 96 M0
WINDOW 0 -30 50 Left 0
WINDOW 3 -51 84 Left 0
SYMATTR InstName L3
SYMATTR Value 2.7µ
SYMATTR Type ind
SYMBOL res 288 -96 R0
SYMATTR InstName R1
SYMATTR Value 100
SYMBOL res -32 320 R0
SYMATTR InstName R2
SYMATTR Value 100
SYMBOL res 288 176 R90
WINDOW 0 0 56 VBottom 0
WINDOW 3 32 56 VTop 0
SYMATTR InstName R3
SYMATTR Value 100
SYMBOL cap -48 176 R90
WINDOW 0 0 32 VBottom 0
WINDOW 3 32 32 VTop 0
SYMATTR InstName C1
SYMATTR Value 100n
SYMBOL res 480 112 R0
SYMATTR InstName R4
SYMATTR Value 50
SYMBOL Misc\\signal -208 192 R0
WINDOW 123 24 132 Left 0
WINDOW 39 0 0 Left 0
SYMATTR Value2 AC 1
SYMATTR InstName V1
SYMATTR Value ""
SYMBOL Misc\\signal -368 192 R0
WINDOW 123 24 132 Left 0
WINDOW 39 24 160 Left 0
SYMATTR Value2 AC 2
SYMATTR SpiceLine Rser=50
SYMATTR InstName V2
SYMATTR Value ""
SYMBOL res -224 320 R0
SYMATTR InstName R5
SYMATTR Value 1G
SYMBOL cap 208 48 R0
SYMATTR InstName C2
SYMATTR Value 100n
SYMBOL voltage -240 -64 R0
WINDOW 123 0 0 Left 0
WINDOW 39 0 0 Left 0
SYMATTR InstName V3
SYMATTR Value 12
TEXT 224 352 Left 0 !K1 L2 L3 0.999
TEXT -400 504 Left 0 !.ac dec 50 100k 100Meg
TEXT 336 80 Left 0 ;15T:3T
